*
*******************************************
*
*BAV102
*
*NXP Semiconductors
*
*Single general-purpose switching diode
*
*
*
*
* 
*VFmax = 1.25V @ IF = 200mA
*IRmax = 100nA @ VR = 150V
*
*
*
*
*
*  
*
*
*
*Package pinning does not match Spice model pinning.
*Package: SOD80C 
*
*Package Pin 1: Cathode
*Package Pin 2: Anode 
*
*
*
*Extraction date (week/year): 50/2016
*Simulator: SPICE3
*
*******************************************
*#
.SUBCKT BAV102 1 2
*
*The resistor R1 and the diode D2 do not reflect  
*physical devices but improve only modeling  
*in the reverse mode of operation.
*
R1 1 2 1E+010
D1 1 2
+ DIODE1
D2 1 2
+ DIODE2
*
.MODEL DIODE1 D
+ IS = 8E-010
+ N = 1.7
+ BV = 267
+ IBV = 0.001
+ RS = 0.5
+ CJO = 9.88E-013
+ VJ = 1.8
+ M = 0.12
+ FC = 0.5
+ TT = 0
+ EG = 1.1
+ XTI = 3
.MODEL DIODE2 D
+ IS = 2E-009
+ N = 1.9
+ RS = 200
.ENDS
*